LTspice 24.0.12 for Windows
Circuit: * C:\Users\saahb\OneDrive\Documents\LTspice\Draft1.asc
Start Time: Wed Dec 25 10:45:34 2024
solver = Normal
Maximum thread count: 12
tnom = 27
temp = 27
method = modified trap
Total elapsed time: 0.255 seconds.

